dss/export/capas-pablo/completo-reducido-1/Line.dss
New Line.conexion_et_bus_1558 bus1=buset bus2=1558 length=1.0 units=0 r1=0.000275299 r0=0.000420731 x1=0.000297103 x0=0.00169017 c1=0.012569200000000004 c0=0.0037520900000000013 enabled=true phases=3
New Line.conexion_et_bus_1583 bus1=buset bus2=1583 length=1.0 units=0 r1=0.000275299 r0=0.000420731 x1=0.000297103 x0=0.00169017 c1=0.012569200000000004 c0=0.0037520900000000013 enabled=true phases=3
New Line.conexion_et_bus_192 bus1=buset bus2=192 length=1.0 units=0 r1=0.000275299 r0=0.000420731 x1=0.000297103 x0=0.00169017 c1=0.012569200000000004 c0=0.0037520900000000013 enabled=true phases=3
New Line.conexion_et_bus_234 bus1=buset bus2=234 length=1.0 units=0 r1=0.000275299 r0=0.000420731 x1=0.000297103 x0=0.00169017 c1=0.012569200000000004 c0=0.0037520900000000013 enabled=true phases=3
New Line.conexion_et_bus_1557 bus1=buset bus2=1557 length=1.0 units=0 r1=0.000275299 r0=0.000420731 x1=0.000297103 x0=0.00169017 c1=0.012569200000000004 c0=0.0037520900000000013 enabled=true phases=3
New Line.idlinea1_idtramos_1 bus1=1 bus2=2 length=517.363 units=0 r1=0.00048417 r0=0.000629602 x1=0.000315326 x0=0.0017084 c1=0.0117887 c0=0.00367967 enabled=true phases=3
New Line.idlinea2_idtramos_2 bus1=2 bus2=3 length=307.326 units=0 r1=0.00048417 r0=0.000629602 x1=0.000315326 x0=0.0017084 c1=0.0117887 c0=0.00367967 enabled=true phases=3
New Line.idlinea3_idtramos_3 bus1=4 bus2=5 length=43.514 units=0 r1=0.000952086 r0=0.00109752 x1=0.00033682 x0=0.00172989 c1=0.0109851 c0=0.0035978200000000007 enabled=true phases=3
New Line.idlinea4_idtramos_4 bus1=6 bus2=7 length=9.729 units=0 r1=0.000952086 r0=0.00109752 x1=0.00033682 x0=0.00172989 c1=0.0109851 c0=0.0035978200000000007 enabled=true phases=3
New Line.idlinea5_idtramos_5 bus1=8 bus2=9 length=64.12 units=0 r1=0.000952086 r0=0.00109752 x1=0.00033682 x0=0.00172989 c1=0.0109851 c0=0.0035978200000000007 enabled=true phases=3
New Line.idlinea6_idtramos_6 bus1=10 bus2=11 length=31.756 units=0 r1=0.000952086 r0=0.00109752 x1=0.00033682 x0=0.00172989 c1=0.0109851 c0=0.0035978200000000007 enabled=true phases=3
New Line.idlinea7_idtramos_7 bus1=3 bus2=12 length=621.297 units=0 r1=0.00048417 r0=0.000629602 x1=0.000315326 x0=0.0017084 c1=0.0117887 c0=0.00367967 enabled=true phases=3
New Line.idlinea8_idtramos_8 bus1=13 bus2=14 length=47.359 units=0 r1=0.000663124 r0=0.000808557 x1=0.000325502 x0=0.00171857 c1=0.011393900000000004 c0=0.0036404500000000004 enabled=true phases=3
New Line.idlinea16_idtramos_9 bus1=16 bus2=15 length=244.205 units=0 r1=0.00048417 r0=0.000629602 x1=0.000315326 x0=0.0017084 c1=0.0117887 c0=0.00367967 enabled=true phases=3
New Line.idlinea17_idtramos_10 bus1=16 bus2=17 length=20.714 units=0 r1=0.00048417 r0=0.000629602 x1=0.000315326 x0=0.0017084 c1=0.0117887 c0=0.00367967 enabled=true phases=3
New Line.idlinea18_idtramos_11 bus1=18 bus2=19 length=28.91 units=0 r1=0.00048417 r0=0.000629602 x1=0.000315326 x0=0.0017084 c1=0.0117887 c0=0.00367967 enabled=true phases=3
New Line.idlinea28_idtramos_12 bus1=20 bus2=21 length=41.74 units=0 r1=0.000952086 r0=0.00109752 x1=0.00033682 x0=0.00172989 c1=0.0109851 c0=0.0035978200000000007 enabled=true phases=3
New Line.idlinea35_idtramos_13 bus1=22 bus2=23 length=25.325 units=0 r1=0.000952086 r0=0.00109752 x1=0.00033682 x0=0.00172989 c1=0.0109851 c0=0.0035978200000000007 enabled=true phases=3
New Line.idlinea41_idtramos_16 bus1=26 bus2=27 length=484.806 units=0 r1=0.000663124 r0=0.000808557 x1=0.000325502 x0=0.00171857 c1=0.011393900000000004 c0=0.0036404500000000004 enabled=true phases=3
New Line.idlinea42_idtramos_17 bus1=28 bus2=29 length=21.831 units=0 r1=0.000952086 r0=0.00109752 x1=0.00033682 x0=0.00172989 c1=0.0109851 c0=0.0035978200000000007 enabled=true phases=3
New Line.idlinea54_idtramos_18 bus1=30 bus2=31 length=17.451 units=0 r1=0.00048417 r0=0.000629602 x1=0.000315326 x0=0.0017084 c1=0.0117887 c0=0.00367967 enabled=true phases=3
New Line.idlinea55_idtramos_19 bus1=47 bus2=32 length=113.01 units=0 r1=0.000663124 r0=0.000808557 x1=0.000325502 x0=0.00171857 c1=0.011393900000000004 c0=0.0036404500000000004 enabled=true phases=3
New Line.idlinea40_idtramos_27 bus1=41 bus2=42 length=98.152 units=0 r1=0.00048417 r0=0.000629602 x1=0.000315326 x0=0.0017084 c1=0.0117887 c0=0.00367967 enabled=true phases=3
New Line.idlinea56_idtramos_28 bus1=43 bus2=44 length=394.734 units=0 r1=0.000663124 r0=0.000808557 x1=0.000325502 x0=0.00171857 c1=0.011393900000000004 c0=0.0036404500000000004 enabled=true phases=3
New Line.idlinea61_idtramos_29 bus1=45 bus2=46 length=517.789 units=0 r1=0.000952086 r0=0.00109752 x1=0.00033682 x0=0.00172989 c1=0.0109851 c0=0.0035978200000000007 enabled=true phases=3
New Line.idlinea62_idtramos_30 bus1=47 bus2=48 length=60.185 units=0 r1=0.000663124 r0=0.000808557 x1=0.000325502 x0=0.00171857 c1=0.011393900000000004 c0=0.0036404500000000004 enabled=true phases=3
New Line.idlinea9_idtramos_31 bus1=49 bus2=50 length=340.328 units=0 r1=0.000663124 r0=0.000808557 x1=0.000325502 x0=0.00171857 c1=0.011393900000000004 c0=0.0036404500000000004 enabled=true phases=3
New Line.idlinea11_idtramos_39 bus1=59 bus2=60 length=528.272 units=0 r1=0.000952086 r0=0.00109752 x1=0.00033682 x0=0.00172989 c1=0.0109851 c0=0.0035978200000000007 enabled=true phases=3
New Line.idlinea12_idtramos_40 bus1=61 bus2=62 length=53.403 units=0 r1=0.00048417 r0=0.000629602 x1=0.000315326 x0=0.0017084 c1=0.0117887 c0=0.00367967 enabled=true phases=3
New Line.idlinea13_idtramos_41 bus1=63 bus2=64 length=134.016 units=0 r1=0.00048417 r0=0.000629602 x1=0.000315326 x0=0.0017084 c1=0.0117887 c0=0.00367967 enabled=true phases=3
New Line.idlinea14_idtramos_42 bus1=65 bus2=66 length=650.112 units=0 r1=0.000952086 r0=0.00109752 x1=0.00033682 x0=0.00172989 c1=0.0109851 c0=0.0035978200000000007 enabled=true phases=3
New Line.idlinea15_idtramos_43 bus1=67 bus2=68 length=51.137 units=0 r1=0.000952086 r0=0.00109752 x1=0.00033682 x0=0.00172989 c1=0.0109851 c0=0.0035978200000000007 enabled=true phases=3
New Line.idlinea19_idtramos_44 bus1=69 bus2=70 length=7.965 units=0 r1=0.000952086 r0=0.00109752 x1=0.00033682 x0=0.00172989 c1=0.0109851 c0=0.0035978200000000007 enabled=true phases=3
New Line.idlinea43_idtramos_45 bus1=71 bus2=72 length=111.277 units=0 r1=0.000952086 r0=0.00109752 x1=0.00033682 x0=0.00172989 c1=0.0109851 c0=0.0035978200000000007 enabled=true phases=3
New Line.idlinea99_idtramos_46 bus1=88 bus2=73 length=48.256 units=0 r1=0.000952086 r0=0.00109752 x1=0.00033682 x0=0.00172989 c1=0.0109851 c0=0.0035978200000000007 enabled=true phases=3
New Line.idlinea20_idtramos_47 bus1=74 bus2=75 length=296.972 units=0 r1=0.00048417 r0=0.000629602 x1=0.000315326 x0=0.0017084 c1=0.0117887 c0=0.00367967 enabled=true phases=3
New Line.idlinea66_idtramos_50 bus1=78 bus2=79 length=272.813 units=0 r1=0.00048417 r0=0.000629602 x1=0.000315326 x0=0.0017084 c1=0.0117887 c0=0.00367967 enabled=true phases=3
New Line.idlinea96_idtramos_51 bus1=80 bus2=81 length=6.43 units=0 r1=0.00048417 r0=0.000629602 x1=0.000315326 x0=0.0017084 c1=0.0117887 c0=0.00367967 enabled=true phases=3
New Line.idlinea22_idtramos_52 bus1=82 bus2=83 length=6.496 units=0 r1=0.000952086 r0=0.00109752 x1=0.00033682 x0=0.00172989 c1=0.0109851 c0=0.0035978200000000007 enabled=true phases=3
New Line.idlinea97_idtramos_53 bus1=84 bus2=85 length=33.456 units=0 r1=0.000952086 r0=0.00109752 x1=0.00033682 x0=0.00172989 c1=0.0109851 c0=0.0035978200000000007 enabled=true phases=3
New Line.idlinea98_idtramos_54 bus1=86 bus2=87 length=31.231 units=0 r1=0.00048417 r0=0.000629602 x1=0.000315326 x0=0.0017084 c1=0.0117887 c0=0.00367967 enabled=true phases=3
New Line.idlinea100_idtramos_55 bus1=88 bus2=89 length=42.003 units=0 r1=0.000952086 r0=0.00109752 x1=0.00033682 x0=0.00172989 c1=0.0109851 c0=0.0035978200000000007 enabled=true phases=3
New Line.idlinea101_idtramos_56 bus1=90 bus2=91 length=14.317 units=0 r1=0.000952086 r0=0.00109752 x1=0.00033682 x0=0.00172989 c1=0.0109851 c0=0.0035978200000000007 enabled=true phases=3
New Line.idlinea102_idtramos_57 bus1=92 bus2=93 length=301.571 units=0 r1=0.000952086 r0=0.00109752 x1=0.00033682 x0=0.00172989 c1=0.0109851 c0=0.0035978200000000007 enabled=true phases=3
New Line.idlinea103_idtramos_58 bus1=94 bus2=95 length=236.552 units=0 r1=0.000952086 r0=0.00109752 x1=0.00033682 x0=0.00172989 c1=0.0109851 c0=0.0035978200000000007 enabled=true phases=3
New Line.idlinea104_idtramos_59 bus1=95 bus2=96 length=528.526 units=0 r1=0.000952086 r0=0.00109752 x1=0.00033682 x0=0.00172989 c1=0.0109851 c0=0.0035978200000000007 enabled=true phases=3
New Line.idlinea105_idtramos_60 bus1=97 bus2=98 length=37.297 units=0 r1=0.000952086 r0=0.00109752 x1=0.00033682 x0=0.00172989 c1=0.0109851 c0=0.0035978200000000007 enabled=true phases=3
New Line.idlinea106_idtramos_61 bus1=101 bus2=99 length=29.74 units=0 r1=0.000952086 r0=0.00109752 x1=0.00033682 x0=0.00172989 c1=0.0109851 c0=0.0035978200000000007 enabled=true phases=3
New Line.idlinea107_idtramos_62 bus1=100 bus2=101 length=70.505 units=0 r1=0.000663124 r0=0.000808557 x1=0.000325502 x0=0.00171857 c1=0.011393900000000004 c0=0.0036404500000000004 enabled=true phases=3
New Line.idlinea108_idtramos_63 bus1=102 bus2=103 length=512.092 units=0 r1=0.00048417 r0=0.000629602 x1=0.000315326 x0=0.0017084 c1=0.0117887 c0=0.00367967 enabled=true phases=3
New Line.idlinea23_idtramos_64 bus1=104 bus2=105 length=5.212 units=0 r1=0.000952086 r0=0.00109752 x1=0.00033682 x0=0.00172989 c1=0.0109851 c0=0.0035978200000000007 enabled=true phases=3
New Line.idlinea44_idtramos_65 bus1=106 bus2=107 length=24.318 units=0 r1=0.000952086 r0=0.00109752 x1=0.00033682 x0=0.00172989 c1=0.0109851 c0=0.0035978200000000007 enabled=true phases=3
New Line.idlinea45_idtramos_66 bus1=108 bus2=109 length=51.729 units=0 r1=0.000663124 r0=0.000808557 x1=0.000325502 x0=0.00171857 c1=0.011393900000000004 c0=0.0036404500000000004 enabled=true phases=3
New Line.idlinea109_idtramos_67 bus1=110 bus2=111 length=40.945 units=0 r1=0.00048417 r0=0.000629602 x1=0.000315326 x0=0.0017084 c1=0.0117887 c0=0.00367967 enabled=true phases=3
New Line.idlinea110_idtramos_68 bus1=112 bus2=113 length=24.85 units=0 r1=0.000952086 r0=0.00109752 x1=0.00033682 x0=0.00172989 c1=0.0109851 c0=0.0035978200000000007 enabled=true phases=3
New Line.idlinea48_idtramos_78 bus1=125 bus2=124 length=54.196 units=0 r1=0.000663124 r0=0.000808557 x1=0.000325502 x0=0.00171857 c1=0.011393900000000004 c0=0.0036404500000000004 enabled=true phases=3
New Line.idlinea49_idtramos_79 bus1=125 bus2=126 length=29.2 units=0 r1=0.000952086 r0=0.00109752 x1=0.00033682 x0=0.00172989 c1=0.0109851 c0=0.0035978200000000007 enabled=true phases=3
New Line.idlinea50_idtramos_80 bus1=29 bus2=127 length=21.996 units=0 r1=0.000663124 r0=0.000808557 x1=0.000325502 x0=0.00171857 c1=0.011393900000000004 c0=0.0036404500000000004 enabled=true phases=3
New Line.idlinea51_idtramos_81 bus1=128 bus2=129 length=328.627 units=0 r1=0.000952086 r0=0.00109752 x1=0.00033682 x0=0.00172989 c1=0.0109851 c0=0.0035978200000000007 enabled=true phases=3
New Line.idlinea52_idtramos_82 bus1=131 bus2=130 length=362.378 units=0 r1=0.000663124 r0=0.000808557 x1=0.000325502 x0=0.00171857 c1=0.011393900000000004 c0=0.0036404500000000004 enabled=true phases=3
New Line.idlinea53_idtramos_83 bus1=131 bus2=132 length=57.043 units=0 r1=0.000663124 r0=0.000808557 x1=0.000325502 x0=0.00171857 c1=0.011393900000000004 c0=0.0036404500000000004 enabled=true phases=3
New Line.idlinea111_idtramos_84 bus1=133 bus2=134 length=59.324 units=0 r1=0.000952086 r0=0.00109752 x1=0.00033682 x0=0.00172989 c1=0.0109851 c0=0.0035978200000000007 enabled=true phases=3
New Line.idlinea112_idtramos_85 bus1=135 bus2=136 length=48.968 units=0 r1=0.000952086 r0=0.00109752 x1=0.00033682 x0=0.00172989 c1=0.0109851 c0=0.0035978200000000007 enabled=true phases=3
New Line.idlinea114_idtramos_86 bus1=137 bus2=138 length=26.024 units=0 r1=0.000952086 r0=0.00109752 x1=0.00033682 x0=0.00172989 c1=0.0109851 c0=0.0035978200000000007 enabled=true phases=3
New Line.idlinea122_idtramos_87 bus1=139 bus2=140 length=31.224 units=0 r1=0.000952086 r0=0.00109752 x1=0.00033682 x0=0.00172989 c1=0.0109851 c0=0.0035978200000000007 enabled=true phases=3
New Line.idlinea57_idtramos_88 bus1=144 bus2=141 length=870.915 units=0 r1=0.00131006 r0=0.0014555 x1=0.000346644 x0=0.00173971 c1=0.010653400000000004 c0=0.00356164 enabled=true phases=3
New Line.idlinea24_idtramos_89 bus1=142 bus2=143 length=186.25 units=0 r1=0.000663124 r0=0.000808557 x1=0.000325502 x0=0.00171857 c1=0.011393900000000004 c0=0.0036404500000000004 enabled=true phases=3
New Line.idlinea58_idtramos_90 bus1=144 bus2=145 length=658.953 units=0 r1=0.000663124 r0=0.000808557 x1=0.000325502 x0=0.00171857 c1=0.011393900000000004 c0=0.0036404500000000004 enabled=true phases=3
New Line.idlinea124_idtramos_94 bus1=149 bus2=150 length=152.651 units=0 r1=0.000663124 r0=0.000808557 x1=0.000325502 x0=0.00171857 c1=0.011393900000000004 c0=0.0036404500000000004 enabled=true phases=3
New Line.idlinea126_idtramos_99 bus1=164 bus2=155 length=52.451 units=0 r1=0.000663124 r0=0.000808557 x1=0.000325502 x0=0.00171857 c1=0.011393900000000004 c0=0.0036404500000000004 enabled=true phases=3
New Line.idlinea26_idtramos_100 bus1=156 bus2=176 length=1032.359 units=0 r1=0.000352234 r0=0.000497666 x1=0.000305055 x0=0.00169813 c1=0.012216100000000004 c0=0.0037201300000000003 enabled=true phases=3
New Line.idlinea60_idtramos_101 bus1=43 bus2=157 length=58.39 units=0 r1=0.000663124 r0=0.000808557 x1=0.000325502 x0=0.00171857 c1=0.011393900000000004 c0=0.0036404500000000004 enabled=true phases=3
New Line.idlinea127_idtramos_104 bus1=161 bus2=162 length=30.456 units=0 r1=0.00131006 r0=0.0014555 x1=0.000346644 x0=0.00173971 c1=0.010653400000000004 c0=0.00356164 enabled=true phases=3
New Line.idlinea131_idtramos_105 bus1=163 bus2=164 length=28.505 units=0 r1=0.000663124 r0=0.000808557 x1=0.000325502 x0=0.00171857 c1=0.011393900000000004 c0=0.0036404500000000004 enabled=true phases=3
New Line.idlinea132_idtramos_106 bus1=165 bus2=166 length=34.36 units=0 r1=0.00048417 r0=0.000629602 x1=0.000315326 x0=0.0017084 c1=0.0117887 c0=0.00367967 enabled=true phases=3
New Line.idlinea133_idtramos_107 bus1=167 bus2=168 length=99.141 units=0 r1=0.00048417 r0=0.000629602 x1=0.000315326 x0=0.0017084 c1=0.0117887 c0=0.00367967 enabled=true phases=3
New Line.idlinea134_idtramos_108 bus1=169 bus2=170 length=746.199 units=0 r1=0.000663124 r0=0.000808557 x1=0.000325502 x0=0.00171857 c1=0.011393900000000004 c0=0.0036404500000000004 enabled=true phases=3
New Line.idlinea136_idtramos_111 bus1=174 bus2=172 length=36.42 units=0 r1=0.000952086 r0=0.00109752 x1=0.00033682 x0=0.00172989 c1=0.0109851 c0=0.0035978200000000007 enabled=true phases=3
New Line.idlinea137_idtramos_112 bus1=173 bus2=174 length=320.936 units=0 r1=0.000663124 r0=0.000808557 x1=0.000325502 x0=0.00171857 c1=0.011393900000000004 c0=0.0036404500000000004 enabled=true phases=3
New Line.idlinea138_idtramos_113 bus1=97 bus2=175 length=35.069 units=0 r1=0.000952086 r0=0.00109752 x1=0.00033682 x0=0.00172989 c1=0.0109851 c0=0.0035978200000000007 enabled=true phases=3
New Line.idlinea27_idtramos_114 bus1=176 bus2=17 length=26.917 units=0 r1=0.00048417 r0=0.000629602 x1=0.000315326 x0=0.0017084 c1=0.0117887 c0=0.00367967 enabled=true phases=3
New Line.idlinea139_idtramos_115 bus1=177 bus2=178 length=31.668 units=0 r1=0.000952086 r0=0.00109752 x1=0.00033682 x0=0.00172989 c1=0.0109851 c0=0.0035978200000000007 enabled=true phases=3
New Line.idlinea140_idtramos_116 bus1=179 bus2=180 length=31.84 units=0 r1=0.000952086 r0=0.00109752 x1=0.00033682 x0=0.00172989 c1=0.0109851 c0=0.0035978200000000007 enabled=true phases=3
New Line.idlinea141_idtramos_117 bus1=181 bus2=182 length=16.178 units=0 r1=0.000952086 r0=0.00109752 x1=0.00033682 x0=0.00172989 c1=0.0109851 c0=0.0035978200000000007 enabled=true phases=3
New Line.idlinea142_idtramos_118 bus1=183 bus2=184 length=1.069 units=0 r1=0.000352234 r0=0.000497666 x1=0.000305055 x0=0.00169813 c1=0.012216100000000004 c0=0.0037201300000000003 enabled=true phases=3
New Line.idlinea142_idtramos_119 bus1=184 bus2=185 length=37.235 units=0 r1=0.000352234 r0=0.000497666 x1=0.000305055 x0=0.00169813 c1=0.012216100000000004 c0=0.0037201300000000003 enabled=true phases=3
New Line.idlinea143_idtramos_120 bus1=94 bus2=187 length=17.925 units=0 r1=0.00048417 r0=0.000629602 x1=0.000315326 x0=0.0017084 c1=0.0117887 c0=0.00367967 enabled=true phases=3
New Line.idlinea144_idtramos_121 bus1=186 bus2=187 length=30.922 units=0 r1=0.00048417 r0=0.000629602 x1=0.000315326 x0=0.0017084 c1=0.0117887 c0=0.00367967 enabled=true phases=3
New Line.idlinea145_idtramos_122 bus1=188 bus2=189 length=40.575 units=0 r1=0.000952086 r0=0.00109752 x1=0.00033682 x0=0.00172989 c1=0.0109851 c0=0.0035978200000000007 enabled=true phases=3
New Line.idlinea147_idtramos_125 bus1=192 bus2=193 length=10.615 units=0 r1=0.000352234 r0=0.000497666 x1=0.000305055 x0=0.00169813 c1=0.012216100000000004 c0=0.0037201300000000003 enabled=true phases=3
New Line.idlinea148_idtramos_126 bus1=194 bus2=195 length=38.666 units=0 r1=0.000952086 r0=0.00109752 x1=0.00033682 x0=0.00172989 c1=0.0109851 c0=0.0035978200000000007 enabled=true phases=3
New Line.idlinea149_idtramos_127 bus1=196 bus2=197 length=28.564 units=0 r1=0.000952086 r0=0.00109752 x1=0.00033682 x0=0.00172989 c1=0.0109851 c0=0.0035978200000000007 enabled=true phases=3
New Line.idlinea150_idtramos_128 bus1=198 bus2=199 length=67.164 units=0 r1=0.000952086 r0=0.00109752 x1=0.00033682 x0=0.00172989 c1=0.0109851 c0=0.0035978200000000007 enabled=true phases=3
New Line.idlinea151_idtramos_129 bus1=201 bus2=200 length=8.713 units=0 r1=0.000952086 r0=0.00109752 x1=0.00033682 x0=0.00172989 c1=0.0109851 c0=0.0035978200000000007 enabled=true phases=3
New Line.idlinea152_idtramos_130 bus1=201 bus2=202 length=11.284 units=0 r1=0.000952086 r0=0.00109752 x1=0.00033682 x0=0.00172989 c1=0.0109851 c0=0.0035978200000000007 enabled=true phases=3
New Line.idlinea153_idtramos_131 bus1=203 bus2=204 length=15.281 units=0 r1=0.000952086 r0=0.00109752 x1=0.00033682 x0=0.00172989 c1=0.0109851 c0=0.0035978200000000007 enabled=true phases=3
New Line.idlinea154_idtramos_132 bus1=205 bus2=206 length=5.281 units=0 r1=0.000275299 r0=0.000420731 x1=0.000297103 x0=0.00169017 c1=0.012569200000000004 c0=0.0037520900000000013 enabled=true phases=3
New Line.idlinea155_idtramos_133 bus1=188 bus2=207 length=185.044 units=0 r1=0.000275299 r0=0.000420731 x1=0.000297103 x0=0.00169017 c1=0.012569200000000004 c0=0.0037520900000000013 enabled=true phases=3
New Line.idlinea158_idtramos_134 bus1=208 bus2=209 length=112.788 units=0 r1=0.00048417 r0=0.000629602 x1=0.000315326 x0=0.0017084 c1=0.0117887 c0=0.00367967 enabled=true phases=3
New Line.idlinea159_idtramos_135 bus1=210 bus2=211 length=35.059 units=0 r1=0.00048417 r0=0.000629602 x1=0.000315326 x0=0.0017084 c1=0.0117887 c0=0.00367967 enabled=true phases=3
New Line.idlinea173_idtramos_136 bus1=212 bus2=213 length=79.298 units=0 r1=0.000952086 r0=0.00109752 x1=0.00033682 x0=0.00172989 c1=0.0109851 c0=0.0035978200000000007 enabled=true phases=3
New Line.idlinea174_idtramos_137 bus1=214 bus2=216 length=60.317 units=0 r1=0.000952086 r0=0.00109752 x1=0.00033682 x0=0.00172989 c1=0.0109851 c0=0.0035978200000000007 enabled=true phases=3
New Line.idlinea175_idtramos_138 bus1=215 bus2=216 length=35.543 units=0 r1=0.000952086 r0=0.00109752 x1=0.00033682 x0=0.00172989 c1=0.0109851 c0=0.0035978200000000007 enabled=true phases=3
New Line.idlinea184_idtramos_139 bus1=217 bus2=218 length=16.275 units=0 r1=0.000952086 r0=0.00109752 x1=0.00033682 x0=0.00172989 c1=0.0109851 c0=0.0035978200000000007 enabled=true phases=3
New Line.idlinea185_idtramos_140 bus1=219 bus2=220 length=196.542 units=0 r1=0.000663124 r0=0.000808557 x1=0.000325502 x0=0.00171857 c1=0.011393900000000004 c0=0.0036404500000000004 enabled=true phases=3
New Line.idlinea186_idtramos_141 bus1=221 bus2=222 length=28.644 units=0 r1=0.000952086 r0=0.00109752 x1=0.00033682 x0=0.00172989 c1=0.0109851 c0=0.0035978200000000007 enabled=true phases=3
New Line.idlinea187_idtramos_142 bus1=223 bus2=224 length=17.695 units=0 r1=0.000952086 r0=0.00109752 x1=0.00033682 x0=0.00172989 c1=0.0109851 c0=0.0035978200000000007 enabled=true phases=3
New Line.idlinea188_idtramos_143 bus1=225 bus2=226 length=4.909 units=0 r1=0.000952086 r0=0.00109752 x1=0.00033682 x0=0.00172989 c1=0.0109851 c0=0.0035978200000000007 enabled=true phases=3
New Line.idlinea189_idtramos_144 bus1=227 bus2=228 length=15.029 units=0 r1=0.000952086 r0=0.00109752 x1=0.00033682 x0=0.00172989 c1=0.0109851 c0=0.0035978200000000007 enabled=true phases=3
New Line.idlinea191_idtramos_147 bus1=232 bus2=233 length=18.212 units=0 r1=0.000952086 r0=0.00109752 x1=0.00033682 x0=0.00172989 c1=0.0109851 c0=0.0035978200000000007 enabled=true phases=3
New Line.idlinea195_idtramos_148 bus1=234 bus2=235 length=10.434 units=0 r1=0.000352234 r0=0.000497666 x1=0.000305055 x0=0.00169813 c1=0.012216100000000004 c0=0.0037201300000000003 enabled=true phases=3
New Line.idlinea196_idtramos_149 bus1=236 bus2=237 length=36.422 units=0 r1=0.00048417 r0=0.000629602 x1=0.000315326 x0=0.0017084 c1=0.0117887 c0=0.00367967 enabled=true phases=3
New Line.idlinea196_idtramos_150 bus1=237 bus2=238 length=15.693 units=0 r1=0.00048417 r0=0.000629602 x1=0.000315326 x0=0.0017084 c1=0.0117887 c0=0.00367967 enabled=true phases=3
New Line.idlinea198_idtramos_154 bus1=242 bus2=243 length=6.68 units=0 r1=0.000952086 r0=0.00109752 x1=0.00033682 x0=0.00172989 c1=0.0109851 c0=0.0035978200000000007 enabled=true phases=3
New Line.idlinea199_idtramos_155 bus1=244 bus2=245 length=5.956 units=0 r1=0.000952086 r0=0.00109752 x1=0.00033682 x0=0.00172989 c1=0.0109851 c0=0.0035978200000000007 enabled=true phases=3
New Line.idlinea200_idtramos_156 bus1=246 bus2=247 length=13.143 units=0 r1=0.000952086 r0=0.00109752 x1=0.00033682 x0=0.00172989 c1=0.0109851 c0=0.0035978200000000007 enabled=true phases=3
New Line.idlinea201_idtramos_157 bus1=248 bus2=249 length=35.278 units=0 r1=0.000952086 r0=0.00109752 x1=0.00033682 x0=0.00172989 c1=0.0109851 c0=0.0035978200000000007 enabled=true phases=3
New Line.idlinea202_idtramos_158 bus1=250 bus2=251 length=5.496 units=0 r1=0.000952086 r0=0.00109752 x1=0.00033682 x0=0.00172989 c1=0.0109851 c0=0.0035978200000000007 enabled=true phases=3
New Line.idlinea29_idtramos_159 bus1=252 bus2=253 length=610.019 units=0 r1=0.00048417 r0=0.000629602 x1=0.000315326 x0=0.0017084 c1=0.0117887 c0=0.00367967 enabled=true phases=3
New Line.idlinea30_idtramos_160 bus1=254 bus2=255 length=12.589 units=0 r1=0.000663124 r0=0.000808557 x1=0.000325502 x0=0.00171857 c1=0.011393900000000004 c0=0.0036404500000000004 enabled=true phases=3
New Line.idlinea31_idtramos_161 bus1=13 bus2=256 length=12.715 units=0 r1=0.00048417 r0=0.000629602 x1=0.000315326 x0=0.0017084 c1=0.0117887 c0=0.00367967 enabled=true phases=3
New Line.idlinea115_idtramos_162 bus1=158 bus2=257 length=34.448 units=0 r1=0.000952086 r0=0.00109752 x1=0.00033682 x0=0.00172989 c1=0.0109851 c0=0.0035978200000000007 enabled=true phases=3
New Line.idlinea203_idtramos_165 bus1=202 bus2=261 length=173.952 units=0 r1=0.000352234 r0=0.000497666 x1=0.000305055 x0=0.00169813 c1=0.012216100000000004 c0=0.0037201300000000003 enabled=true phases=3
New Line.idlinea203_idtramos_166 bus1=261 bus2=262 length=44.068 units=0 r1=0.000352234 r0=0.000497666 x1=0.000305055 x0=0.00169813 c1=0.012216100000000004 c0=0.0037201300000000003 enabled=true phases=3
New Line.idlinea116_idtramos_167 bus1=110 bus2=263 length=35.915 units=0 r1=0.000952086 r0=0.00109752 x1=0.00033682 x0=0.00172989 c1=0.0109851 c0=0.0035978200000000007 enabled=true phases=3
New Line.idlinea117_idtramos_168 bus1=264 bus2=265 length=31.854 units=0 r1=0.000952086 r0=0.00109752 x1=0.00033682 x0=0.00172989 c1=0.0109851 c0=0.0035978200000000007 enabled=true phases=3
New Line.idlinea33_idtramos_169 bus1=63 bus2=302 length=24.266 units=0 r1=0.000352234 r0=0.000497666 x1=0.000305055 x0=0.00169813 c1=0.012216100000000004 c0=0.0037201300000000003 enabled=true phases=3
New Line.idlinea118_idtramos_170 bus1=266 bus2=267 length=13.233 units=0 r1=0.000952086 r0=0.00109752 x1=0.00033682 x0=0.00172989 c1=0.0109851 c0=0.0035978200000000007 enabled=true phases=3
New Line.idlinea162_idtramos_171 bus1=268 bus2=269 length=362.756 units=0 r1=0.000952086 r0=0.00109752 x1=0.00033682 x0=0.00172989 c1=0.0109851 c0=0.0035978200000000007 enabled=true phases=3
New Line.idlinea163_idtramos_172 bus1=270 bus2=271 length=22.841 units=0 r1=0.000952086 r0=0.00109752 x1=0.00033682 x0=0.00172989 c1=0.0109851 c0=0.0035978200000000007 enabled=true phases=3
New Line.idlinea164_idtramos_173 bus1=272 bus2=273 length=22.366 units=0 r1=0.000952086 r0=0.00109752 x1=0.00033682 x0=0.00172989 c1=0.0109851 c0=0.0035978200000000007 enabled=true phases=3
New Line.idlinea63_idtramos_174 bus1=274 bus2=275 length=25.915 units=0 r1=0.000952086 r0=0.00109752 x1=0.00033682 x0=0.00172989 c1=0.0109851 c0=0.0035978200000000007 enabled=true phases=3
New Line.idlinea119_idtramos_175 bus1=276 bus2=277 length=535.72 units=0 r1=0.00048417 r0=0.000629602 x1=0.000315326 x0=0.0017084 c1=0.0117887 c0=0.00367967 enabled=true phases=3
New Line.idlinea34_idtramos_186 bus1=64 bus2=288 length=39.727 units=0 r1=0.000952086 r0=0.00109752 x1=0.00033682 x0=0.00172989 c1=0.0109851 c0=0.0035978200000000007 enabled=true phases=3
New Line.idlinea36_idtramos_187 bus1=289 bus2=290 length=8.613 units=0 r1=0.000952086 r0=0.00109752 x1=0.00033682 x0=0.00172989 c1=0.0109851 c0=0.0035978200000000007 enabled=true phases=3
New Line.idlinea37_idtramos_188 bus1=186 bus2=291 length=101.887 units=0 r1=0.00048417 r0=0.000629602 x1=0.000315326 x0=0.0017084 c1=0.0117887 c0=0.00367967 enabled=true phases=3
New Line.idlinea67_idtramos_189 bus1=292 bus2=293 length=15.952 units=0 r1=0.000663124 r0=0.000808557 x1=0.000325502 x0=0.00171857 c1=0.011393900000000004 c0=0.0036404500000000004 enabled=true phases=3
New Line.idlinea67_idtramos_190 bus1=293 bus2=78 length=698.566 units=0 r1=0.000663124 r0=0.000808557 x1=0.000325502 x0=0.00171857 c1=0.011393900000000004 c0=0.0036404500000000004 enabled=true phases=3
New Line.idlinea68_idtramos_191 bus1=294 bus2=295 length=14.546 units=0 r1=0.00048417 r0=0.000629602 x1=0.000315326 x0=0.0017084 c1=0.0117887 c0=0.00367967 enabled=true phases=3
New Line.idlinea69_idtramos_192 bus1=296 bus2=297 length=28.83 units=0 r1=0.000952086 r0=0.00109752 x1=0.00033682 x0=0.00172989 c1=0.0109851 c0=0.0035978200000000007 enabled=true phases=3
New Line.idlinea70_idtramos_193 bus1=298 bus2=299 length=124.425 units=0 r1=0.000663124 r0=0.000808557 x1=0.000325502 x0=0.00171857 c1=0.011393900000000004 c0=0.0036404500000000004 enabled=true phases=3
New Line.idlinea71_idtramos_194 bus1=300 bus2=301 length=21.779 units=0 r1=0.000663124 r0=0.000808557 x1=0.000325502 x0=0.00171857 c1=0.011393900000000004 c0=0.0036404500000000004 enabled=true phases=3
New Line.idlinea72_idtramos_195 bus1=302 bus2=303 length=58.383 units=0 r1=0.00048417 r0=0.000629602 x1=0.000315326 x0=0.0017084 c1=0.0117887 c0=0.00367967 enabled=true phases=3
New Line.idlinea74_idtramos_196 bus1=305 bus2=304 length=550.419 units=0 r1=0.00048417 r0=0.000629602 x1=0.000315326 x0=0.0017084 c1=0.0117887 c0=0.00367967 enabled=true phases=3
New Line.idlinea75_idtramos_197 bus1=305 bus2=298 length=169.125 units=0 r1=0.00131006 r0=0.0014555 x1=0.000346644 x0=0.00173971 c1=0.010653400000000004 c0=0.00356164 enabled=true phases=3
New Line.idlinea76_idtramos_198 bus1=306 bus2=307 length=23.617 units=0 r1=0.000952086 r0=0.00109752 x1=0.00033682 x0=0.00172989 c1=0.0109851 c0=0.0035978200000000007 enabled=true phases=3
New Line.idlinea77_idtramos_199 bus1=308 bus2=309 length=87.676 units=0 r1=0.000952086 r0=0.00109752 x1=0.00033682 x0=0.00172989 c1=0.0109851 c0=0.0035978200000000007 enabled=true phases=3
New Line.idlinea165_idtramos_200 bus1=310 bus2=311 length=15.737 units=0 r1=0.00209004 r0=0.00223547 x1=0.000361884 x0=0.00175495 c1=0.0101771 c0=0.003506940000000001 enabled=true phases=3
New Line.idlinea166_idtramos_201 bus1=312 bus2=313 length=20.291 units=0 r1=0.000952086 r0=0.00109752 x1=0.00033682 x0=0.00172989 c1=0.0109851 c0=0.0035978200000000007 enabled=true phases=3
New Line.idlinea168_idtramos_202 bus1=314 bus2=315 length=114.039 units=0 r1=0.000663124 r0=0.000808557 x1=0.000325502 x0=0.00171857 c1=0.011393900000000004 c0=0.0036404500000000004 enabled=true phases=3
New Line.idlinea168_idtramos_203 bus1=315 bus2=316 length=170.108 units=0 r1=0.000663124 r0=0.000808557 x1=0.000325502 x0=0.00171857 c1=0.011393900000000004 c0=0.0036404500000000004 enabled=true phases=3
New Line.idlinea170_idtramos_204 bus1=317 bus2=312 length=193.189 units=0 r1=0.00131006 r0=0.0014555 x1=0.000346644 x0=0.00173971 c1=0.010653400000000004 c0=0.00356164 enabled=true phases=3
New Line.idlinea171_idtramos_205 bus1=213 bus2=318 length=80.513 units=0 r1=0.000952086 r0=0.00109752 x1=0.00033682 x0=0.00172989 c1=0.0109851 c0=0.0035978200000000007 enabled=true phases=3
New Line.idlinea172_idtramos_206 bus1=319 bus2=212 length=22.212 units=0 r1=0.000952086 r0=0.00109752 x1=0.00033682 x0=0.00172989 c1=0.0109851 c0=0.0035978200000000007 enabled=true phases=3
New Line.idlinea176_idtramos_209 bus1=323 bus2=324 length=29.435 units=0 r1=0.000952086 r0=0.00109752 x1=0.00033682 x0=0.00172989 c1=0.0109851 c0=0.0035978200000000007 enabled=true phases=3
New Line.idlinea177_idtramos_210 bus1=207 bus2=325 length=101.667 units=0 r1=0.000275299 r0=0.000420731 x1=0.000297103 x0=0.00169017 c1=0.012569200000000004 c0=0.0037520900000000013 enabled=true phases=3
New Line.idlinea178_idtramos_211 bus1=325 bus2=326 length=108.454 units=0 r1=0.00048417 r0=0.000629602 x1=0.000315326 x0=0.0017084 c1=0.0117887 c0=0.00367967 enabled=true phases=3
New Line.idlinea179_idtramos_212 bus1=327 bus2=328 length=1141.512 units=0 r1=0.000663124 r0=0.000808557 x1=0.000325502 x0=0.00171857 c1=0.011393900000000004 c0=0.0036404500000000004 enabled=true phases=3
New Line.idlinea183_idtramos_213 bus1=329 bus2=330 length=300.634 units=0 r1=0.000952086 r0=0.00109752 x1=0.00033682 x0=0.00172989 c1=0.0109851 c0=0.0035978200000000007 enabled=true phases=3
New Line.idlinea205_idtramos_214 bus1=331 bus2=332 length=28.239 units=0 r1=0.000952086 r0=0.00109752 x1=0.00033682 x0=0.00172989 c1=0.0109851 c0=0.0035978200000000007 enabled=true phases=3
New Line.idlinea206_idtramos_215 bus1=333 bus2=334 length=20.863 units=0 r1=0.000952086 r0=0.00109752 x1=0.00033682 x0=0.00172989 c1=0.0109851 c0=0.0035978200000000007 enabled=true phases=3
New Line.idlinea206_idtramos_216 bus1=334 bus2=335 length=8.157 units=0 r1=0.000952086 r0=0.00109752 x1=0.00033682 x0=0.00172989 c1=0.0109851 c0=0.0035978200000000007 enabled=true phases=3
New Line.idlinea207_idtramos_217 bus1=336 bus2=337 length=55.509 units=0 r1=0.000952086 r0=0.00109752 x1=0.00033682 x0=0.00172989 c1=0.0109851 c0=0.0035978200000000007 enabled=true phases=3
New Line.idlinea208_idtramos_218 bus1=338 bus2=339 length=12.455 units=0 r1=0.000352234 r0=0.000497666 x1=0.000305055 x0=0.00169813 c1=0.012216100000000004 c0=0.0037201300000000003 enabled=true phases=3
New Line.idlinea209_idtramos_219 bus1=340 bus2=341 length=23.847 units=0 r1=0.000352234 r0=0.000497666 x1=0.000305055 x0=0.00169813 c1=0.012216100000000004 c0=0.0037201300000000003 enabled=true phases=3
New Line.idlinea210_idtramos_220 bus1=342 bus2=343 length=8.42 units=0 r1=0.000352234 r0=0.000497666 x1=0.000305055 x0=0.00169813 c1=0.012216100000000004 c0=0.0037201300000000003 enabled=true phases=3
New Line.idlinea211_idtramos_223 bus1=347 bus2=346 length=38.495 units=0 r1=0.000352234 r0=0.000497666 x1=0.000305055 x0=0.00169813 c1=0.012216100000000004 c0=0.0037201300000000003 enabled=true phases=3
New Line.idlinea212_idtramos_224 bus1=347 bus2=348 length=24.26 units=0 r1=0.000952086 r0=0.00109752 x1=0.00033682 x0=0.00172989 c1=0.0109851 c0=0.0035978200000000007 enabled=true phases=3
New Line.idlinea213_idtramos_225 bus1=351 bus2=349 length=28.997 units=0 r1=0.000952086 r0=0.00109752 x1=0.00033682 x0=0.00172989 c1=0.0109851 c0=0.0035978200000000007 enabled=true phases=3
New Line.idlinea214_idtramos_226 bus1=350 bus2=351 length=256.265 units=0 r1=0.00209004 r0=0.00223547 x1=0.000361884 x0=0.00175495 c1=0.0101771 c0=0.003506940000000001 enabled=true phases=3
New Line.idlinea215_idtramos_227 bus1=351 bus2=352 length=114.055 units=0 r1=0.000952086 r0=0.00109752 x1=0.00033682 x0=0.00172989 c1=0.0109851 c0=0.0035978200000000007 enabled=true phases=3
New Line.idlinea216_idtramos_228 bus1=353 bus2=354 length=235.448 units=0 r1=0.000952086 r0=0.00109752 x1=0.00033682 x0=0.00172989 c1=0.0109851 c0=0.0035978200000000007 enabled=true phases=3
New Line.idlinea217_idtramos_229 bus1=355 bus2=356 length=325.287 units=0 r1=0.00209004 r0=0.00223547 x1=0.000361884 x0=0.00175495 c1=0.0101771 c0=0.003506940000000001 enabled=true phases=3
New Line.idlinea218_idtramos_230 bus1=356 bus2=357 length=24.724 units=0 r1=0.00131006 r0=0.0014555 x1=0.000346644 x0=0.00173971 c1=0.010653400000000004 c0=0.00356164 enabled=true phases=3
New Line.idlinea219_idtramos_231 bus1=358 bus2=359 length=49.686 units=0 r1=0.00131006 r0=0.0014555 x1=0.000346644 x0=0.00173971 c1=0.010653400000000004 c0=0.00356164 enabled=true phases=3
New Line.idlinea220_idtramos_232 bus1=360 bus2=361 length=421.904 units=0 r1=0.00209004 r0=0.00223547 x1=0.000361884 x0=0.00175495 c1=0.0101771 c0=0.003506940000000001 enabled=true phases=3
New Line.idlinea221_idtramos_233 bus1=362 bus2=363 length=32.809 units=0 r1=0.000952086 r0=0.00109752 x1=0.00033682 x0=0.00172989 c1=0.0109851 c0=0.0035978200000000007 enabled=true phases=3
New Line.idlinea222_idtramos_234 bus1=364 bus2=365 length=13.159 units=0 r1=0.000952086 r0=0.00109752 x1=0.00033682 x0=0.00172989 c1=0.0109851 c0=0.0035978200000000007 enabled=true phases=3
New Line.idlinea236_idtramos_237 bus1=369 bus2=370 length=498.138 units=0 r1=0.00209004 r0=0.00223547 x1=0.000361884 x0=0.00175495 c1=0.0101771 c0=0.003506940000000001 enabled=true phases=3
New Line.idlinea237_idtramos_238 bus1=371 bus2=372 length=23.471 units=0 r1=0.000663124 r0=0.000808557 x1=0.000325502 x0=0.00171857 c1=0.011393900000000004 c0=0.0036404500000000004 enabled=true phases=3
New Line.idlinea237_idtramos_239 bus1=372 bus2=373 length=32.68 units=0 r1=0.000663124 r0=0.000808557 x1=0.000325502 x0=0.00171857 c1=0.011393900000000004 c0=0.0036404500000000004 enabled=true phases=3
New Line.idlinea238_idtramos_240 bus1=387 bus2=374 length=2.307 units=0 r1=0.00048417 r0=0.000629602 x1=0.000315326 x0=0.0017084 c1=0.0117887 c0=0.00367967 enabled=true phases=3
New Line.idlinea240_idtramos_241 bus1=375 bus2=376 length=5.719 units=0 r1=0.00048417 r0=0.000629602 x1=0.000315326 x0=0.0017084 c1=0.0117887 c0=0.00367967 enabled=true phases=3
New Line.idlinea241_idtramos_242 bus1=377 bus2=378 length=7.26 units=0 r1=0.00048417 r0=0.000629602 x1=0.000315326 x0=0.0017084 c1=0.0117887 c0=0.00367967 enabled=true phases=3
New Line.idlinea242_idtramos_243 bus1=379 bus2=380 length=239.303 units=0 r1=0.000352234 r0=0.000497666 x1=0.000305055 x0=0.00169813 c1=0.012216100000000004 c0=0.0037201300000000003 enabled=true phases=3
New Line.idlinea244_idtramos_244 bus1=381 bus2=382 length=334.561 units=0 r1=0.000663124 r0=0.000808557 x1=0.000325502 x0=0.00171857 c1=0.011393900000000004 c0=0.0036404500000000004 enabled=true phases=3
New Line.idlinea245_idtramos_245 bus1=383 bus2=384 length=82.876 units=0 r1=0.00048417 r0=0.000629602 x1=0.000315326 x0=0.0017084 c1=0.0117887 c0=0.00367967 enabled=true phases=3
New Line.idlinea247_idtramos_248 bus1=388 bus2=389 length=9.551 units=0 r1=0.000952086 r0=0.00109752 x1=0.00033682 x0=0.00172989 c1=0.0109851 c0=0.0035978200000000007 enabled=true phases=3
New Line.idlinea248_idtramos_252 bus1=100 bus2=394 length=166.564 units=0 r1=0.000952086 r0=0.00109752 x1=0.00033682 x0=0.00172989 c1=0.0109851 c0=0.0035978200000000007 enabled=true phases=3
New Line.idlinea249_idtramos_253 bus1=394 bus2=395 length=482.879 units=0 r1=0.00131006 r0=0.0014555 x1=0.000346644 x0=0.00173971 c1=0.010653400000000004 c0=0.00356164 enabled=true phases=3
New Line.idlinea250_idtramos_254 bus1=396 bus2=397 length=726.557 units=0 r1=0.000952086 r0=0.00109752 x1=0.00033682 x0=0.00172989 c1=0.0109851 c0=0.0035978200000000007 enabled=true phases=3
New Line.idlinea251_idtramos_255 bus1=398 bus2=90 length=956.856 units=0 r1=0.00048417 r0=0.000629602 x1=0.000315326 x0=0.0017084 c1=0.0117887 c0=0.00367967 enabled=true phases=3
New Line.idlinea252_idtramos_256 bus1=399 bus2=166 length=38.842 units=0 r1=0.00048417 r0=0.000629602 x1=0.000315326 x0=0.0017084 c1=0.0117887 c0=0.00367967 enabled=true phases=3
New Line.idlinea254_idtramos_265 bus1=409 bus2=410 length=269.638 units=0 r1=0.00048417 r0=0.000629602 x1=0.000315326 x0=0.0017084 c1=0.0117887 c0=0.00367967 enabled=true phases=3
New Line.idlinea256_idtramos_269 bus1=414 bus2=415 length=96.456 units=0 r1=0.00048417 r0=0.000629602 x1=0.000315326 x0=0.0017084 c1=0.0117887 c0=0.00367967 enabled=true phases=3
New Line.idlinea259_idtramos_294 bus1=442 bus2=443 length=43.746 units=0 r1=0.00048417 r0=0.000629602 x1=0.000315326 x0=0.0017084 c1=0.0117887 c0=0.00367967 enabled=true phases=3
New Line.idlinea261_idtramos_303 bus1=444 bus2=453 length=37.225 units=0 r1=0.000952086 r0=0.00109752 x1=0.00033682 x0=0.00172989 c1=0.0109851 c0=0.0035978200000000007 enabled=true phases=3
New Line.idlinea267_idtramos_324 bus1=476 bus2=477 length=27.937 units=0 r1=0.00048417 r0=0.000629602 x1=0.000315326 x0=0.0017084 c1=0.0117887 c0=0.00367967 enabled=true phases=3
New Line.idlinea272_idtramos_344 bus1=busmt_500 bus2=501 length=13.054 units=0 r1=0.00048417 r0=0.000629602 x1=0.000364866 x0=0.00160931 c1=0.0100937 c0=0.00410549 enabled=true phases=3
New Line.idlinea273_idtramos_345 bus1=502 bus2=503 length=58.681 units=0 r1=0.000952086 r0=0.00109752 x1=0.00038636 x0=0.00163081 c1=0.00949996 c0=0.004040200000000002 enabled=true phases=3
...
